kpg193_v2_0_2035/network/m/KPG193_ver2_0_2035.m
function mpc = KPG193_ver2_0_2035
% Generated from KPG193_ver1_6 ACOPF hourly result.
% Bus voltage angle Va is in degrees, matching MATPOWER case format.
mpc.version = '2';

%-----  Power Flow Data  -----%%
% system MVA base
mpc.baseMVA = 100;

% bus data
%	bus_i	type	Pd	Qd	Gs	Bs	area	Vm	Va	baseKV	zone	Vmax	Vmin
mpc.bus = [
	1	1	73.0479115295	7.30479115295	0	0	1	1.00303455132	-9.66087526294	154	1	1.1	0.9	;
	2	1	88.2878127403	8.82878127403	0	0	1	1.00744507462	-11.3071747804	345	1	1.05	0.95	;
	3	1	404.922223654	40.4922223654	0	0	1	1.00769738082	-11.2146072877	345	1	1.05	0.95	;
	4	1	93.916305967	9.3916305967	0	0	1	1.00891852738	-11.7582727297	345	1	1.05	0.95	;
	5	1	90.4376144378	10.6051945935	0	0	1	1.00658020517	-2.77078077256	154	1	1.1	0.9	;
	6	1	90.2333521187	9.02333521187	0	0	1	1.00689805459	-12.7195836293	154	1	1.1	0.9	;
	7	1	608.836554056	60.8850116806	0	0	1	1.01079242249	-12.0905439779	345	1	1.05	0.95	;
	8	1	1389.80199914	138.980199914	0	0	1	1.00789246998	-12.3973808943	345	1	1.05	0.95	;
	9	1	351.855168229	35.1855168229	0	0	1	1.01026337656	-12.1253561618	154	1	1.1	0.9	;
	10	2	773.01192101	77.301192101	0	0	1	1.00986040354	-12.2612619651	154	1	1.1	0.9	;
	11	1	640.271395485	64.0271395485	0	0	1	1.00676727565	-12.7351601022	345	1	1.05	0.95	;
	12	1	351.324595172	35.1324595172	0	0	1	1.01013561114	-12.141615606	154	1	1.1	0.9	;
	13	1	378.666326864	37.8666326864	0	0	1	1.01045224029	-12.1188170647	154	1	1.1	0.9	;
	14	1	406.091638752	40.6091638752	0	0	1	1.01012089222	-12.1658841697	345	1	1.05	0.95	;
	15	1	120.129822959	12.0129822959	0	0	1	1.0111669803	-12.0271128039	154	1	1.1	0.9	;
	16	1	517.524010635	51.7524010635	0	0	1	1.01158455957	-11.9810614543	345	1	1.05	0.95	;
	17	1	558.050341268	55.8050341268	0	0	1	1.01107151985	-12.0782713725	345	1	1.05	0.95	;
	18	1	582.627714996	58.2627714996	0	0	1	1.01079650112	-12.1178514446	345	1	1.05	0.95	;
	19	2	548.296174011	54.8505451483	0	0	1	1.01013441628	-12.1636331892	345	1	1.05	0.95	;
	20	2	280.673724832	28.3258629411	0	0	1	1.00912109023	-11.4933742155	154	1	1.1	0.9	;
	21	2	841.803884359	85.5000004277	0	0	1	1.00708808804	-12.5533266624	345	1	1.05	0.95	;
	22	1	690.43287937	69.043287937	0	0	1	1.0117615244	-11.9428065368	345	1	1.05	0.95	;
	23	1	404.035392962	40.4035392962	0	0	1	1.00917134706	-12.2174621843	345	1	1.05	0.95	;
	24	1	661.010055847	66.1010055847	0	0	1	1.00873676685	-12.3161106821	154	1	1.1	0.9	;
	25	1	534.540875552	53.4540875552	0	0	1	1.00807727849	-12.4437112067	154	1	1.1	0.9	;
	26	1	630.912143369	63.0912143369	0	0	1	1.00843402539	-12.3162449205	345	1	1.05	0.95	;
	27	2	-286.547354904	3.59378329352	0	0	1	1.00913466226	-12.0121367299	345	1	1.05	0.95	;
	28	1	143.034963761	14.3034963761	0	0	1	1.0079932416	-7.06508563171	765	1	1.05	0.95	;
	29	1	695.605719543	69.5608718612	0	0	1	1.00998295473	-11.9982267814	345	1	1.05	0.95	;
	30	1	540.474833557	54.0474833557	0	0	1	1.00992362344	-12.0013786478	154	1	1.1	0.9	;
	31	1	439.551743028	43.9561615056	0	0	1	1.00819318361	-12.2941443667	154	1	1.1	0.9	;
	32	1	181.232528419	18.1232528419	0	0	1	1.00881182633	-12.2465583998	345	1	1.05	0.95	;
	33	1	522.616741441	52.2616741441	0	0	1	1.00851075749	-12.2616398098	154	1	1.1	0.9	;
	34	2	1168.77086217	116.877774947	0	0	1	1.00849960302	-12.2719032592	345	1	1.05	0.95	;
	35	1	712.029357167	71.2029357167	0	0	1	1.00580708807	-12.4755419579	154	1	1.1	0.9	;
	36	2	821.407213047	82.1407213047	0	0	1	1.00992135166	-11.9690665404	345	1	1.05	0.95	;
	37	1	1007.02915633	100.702915633	0	0	1	1.00734303945	-12.2804020276	345	1	1.05	0.95	;
	38	1	407.858302359	40.7858302359	0	0	1	1.00704056347	-11.2655078299	345	1	1.05	0.95	;
	39	1	786.873495947	78.6873495947	0	0	1	1.00299273756	-13.083510052	154	1	1.1	0.9	;
	40	2	1173.70197679	119.276620912	0	0	1	1.00547028783	-11.5394681506	345	1	1.05	0.95	;
	41	1	215.518414121	21.5518414121	0	0	1	0.995516010359	-6.63098041703	154	1	1.1	0.9	;
	42	2	1315.31136606	131.531136606	0	0	1	0.994512655875	-10.2568025359	154	1	1.1	0.9	;
	43	2	685.518700998	68.5553541461	0	0	1	1.00391247258	-12.6302569035	154	1	1.1	0.9	;
	44	1	211.496228523	21.151261899	0	0	1	1.00594535343	-12.0732123525	345	1	1.05	0.95	;
	45	1	387.269190005	38.7269190005	0	0	1	1.00619708413	-11.6050352357	345	1	1.05	0.95	;
	46	2	1218.29347216	121.829347216	0	0	1	1.00689505986	-11.2982325813	345	1	1.05	0.95	;
	47	1	3085.74260678	308.574992023	0	0	1	1.00316352379	-12.7136256455	345	1	1.05	0.95	;
	48	2	215.244793161	21.5244793161	0	0	1	1.00597020504	-11.448357953	154	1	1.1	0.9	;
	49	1	440.375716039	44.0375716039	0	0	1	1.00376969895	-11.6311116816	154	1	1.1	0.9	;
	50	1	523.683941812	52.3683941812	0	0	1	1.00707882934	-10.6749579765	765	1	1.05	0.95	;
	51	1	2098.00962631	209.800962631	0	0	1	1.0047686333	-11.4487182137	345	1	1.05	0.95	;
	52	1	482.813619311	48.2813619311	0	0	2	0.995883326308	-8.80709132662	154	1	1.1	0.9	;
	53	2	1002.02991268	100.202991268	0	0	2	1.00909365729	-6.3185404379	765	1	1.05	0.95	;
	54	1	430.530786719	43.0530786719	0	0	2	1.00496047804	-10.1724505008	345	1	1.05	0.95	;
	55	1	1253.19590923	125.320019438	0	0	2	1.00358715419	-9.51288068418	345	1	1.05	0.95	;
	56	1	174.114058987	17.4114058987	0	0	2	0.998457389343	-10.1003606285	154	1	1.1	0.9	;
	57	1	1973.23213782	197.323540206	0	0	2	1.00294837885	-9.81817127079	345	1	1.05	0.95	;
	58	1	1477.10043218	147.710957265	0	0	2	1.00883955647	-6.15160580877	345	1	1.05	0.95	;
	59	2	134.077551619	13.4126085455	0	0	2	1.00965610848	-5.13476946248	345	1	1.05	0.95	;
	60	1	195.328725467	19.5328725467	0	0	2	1.0075413765	-8.11336915683	345	1	1.05	0.95	;
	61	1	935.125117467	93.5125735228	0	0	2	1.00533136541	-10.0695565868	154	1	1.1	0.9	;
	62	1	1100.64229748	110.064518688	0	0	2	1.00688368424	-9.91499405211	765	1	1.05	0.95	;
	63	1	152.488253426	15.2488253426	0	0	2	1.00921738747	-7.27596604436	765	1	1.05	0.95	;
	64	1	555.620068206	55.5620068206	0	0	2	1.00579281371	-9.38417633907	345	1	1.05	0.95	;
	65	1	92.0904539737	13.213549297	0	0	3	0.988975119613	4.15215062973	154	1	1.1	0.9	;
	66	1	32.6714574127	3.81704384415	0	0	3	0.997726801636	-4.34589167266	154	1	1.1	0.9	;
	67	1	27.6259980751	3.02423497492	0	0	3	0.992334721333	-1.456294158	154	1	1.1	0.9	;
	68	1	0.294749148065	4.77477224322	0	0	3	0.991584231541	6.07795970403	345	1	1.05	0.95	;
	69	1	15.4403181026	4.96838266051	0	0	3	0.990417602978	0.699101131909	154	1	1.1	0.9	;
	70	1	273.369208799	27.4029897638	0	0	3	0.996673365736	-4.33910869555	154	1	1.1	0.9	;
	71	2	309.043788072	30.9043788072	0	0	3	0.992962081842	8.1939649606	345	1	1.05	0.95	;
	72	1	107.896528614	10.7896528614	0	0	3	0.993720496756	-3.36866517367	154	1	1.1	0.9	;
	73	2	341.660381177	35.0390824333	0	0	3	0.992585430419	10.5494742758	345	1	1.05	0.95	;
	74	1	-108.432117236	9.9645991773	0	0	3	0.99576155439	-3.32677613865	154	1	1.1	0.9	;
	75	2	162.240668345	20.679643151	0	0	3	0.995088787065	12.6122988457	345	1	1.05	0.95	;
	76	1	33.9599037163	9.2058514	0	0	3	0.984666574961	4.86159129038	154	1	1.1	0.9	;
	77	1	379.643263769	37.9643263769	0	0	3	0.994737043266	-4.8699905019	154	1	1.1	0.9	;
	78	1	-889.804112474	9.1883648191	0	0	3	1.00141201023	-0.513121188281	154	1	1.1	0.9	;
	79	1	167.488736297	16.7488736297	0	0	3	0.98531356439	1.61234882576	154	1	1.1	0.9	;
	80	1	-3803.44728611	4.44426485649	0	0	3	0.998972552683	11.6648496986	765	1	1.05	0.95	;
	81	1	242.571316231	24.2581964503	0	0	3	0.98988359793	-0.737091409616	345	1	1.05	0.95	;
	82	2	-118.880284325	10.5476162518	0	0	3	1.00709482039	15.0037089948	765	1	1.05	0.95	;
	83	1	277.370538723	27.7378058944	0	0	3	0.981532820559	-0.952198130748	154	1	1.1	0.9	;
	84	1	392.518082876	40.4612984793	0	0	3	0.994896709488	-7.73142122408	345	1	1.05	0.95	;
	85	1	261.242049088	26.1242049089	0	0	3	0.990181472399	3.74962476068	154	1	1.1	0.9	;
	86	1	255.823875249	25.5826398373	0	0	3	0.995111427518	2.69122067718	345	1	1.05	0.95	;
	87	2	31.3856926817	5.85256363254	0	0	3	0.999431801861	2.70044827219	345	1	1.05	0.95	;
	88	1	-1012.96055137	1.64564923359	0	0	3	1.0057493524	12.2119502051	154	1	1.1	0.9	;
	89	1	88.7634335247	8.8770895263	0	0	3	0.992924721628	-0.811396571484	154	1	1.1	0.9	;
	90	1	172.299777876	17.7782231013	0	0	3	0.996124684081	1.60699458361	154	1	1.1	0.9	;
	91	1	59.5130305831	5.95130305832	0	0	3	1.00318320669	-7.87512872466	154	1	1.1	0.9	;
	92	1	-180.266558202	3.02045303004	0	0	3	0.998609250686	3.19299014061	345	1	1.05	0.95	;
	93	1	117.747710042	11.7761271866	0	0	3	0.995991210459	-4.0987575517	154	1	1.1	0.9	;
	94	1	-703.866478532	4.35294779239	0	0	3	1.00432300444	10.1803821892	154	1	1.1	0.9	;
	95	1	66.8904964066	6.68904964066	0	0	3	0.998901945348	1.67339804317	345	1	1.05	0.95	;
	96	1	173.056922835	17.3056922835	0	0	4	1.00591934834	-8.66542197802	154	1	1.1	0.9	;
	97	1	53.8476614281	5.38476614281	0	0	4	1.00988134158	-7.01877245259	345	1	1.05	0.95	;
	98	1	275.013238835	27.7617241404	0	0	4	1.00287180886	-9.71118035897	154	1	1.1	0.9	;
	99	2	890.717210656	89.0717210656	0	0	4	1.00250773967	-9.97455219684	154	1	1.1	0.9	;
	100	2	208.737567793	20.8737567793	0	0	4	1.01114828048	-5.05423599546	345	1	1.05	0.95	;
	101	1	325.540930419	32.5540930419	0	0	4	1.00569329376	-9.22639100868	154	1	1.1	0.9	;
	102	1	95.8381000782	9.58381000782	0	0	4	1.00687793589	-8.04863529821	345	1	1.05	0.95	;
	103	1	100.470628736	10.0470628736	0	0	4	1.00872151736	-7.09579406561	154	1	1.1	0.9	;
	104	1	212.246835233	21.2246835233	0	0	4	1.00817533118	-7.89991491057	345	1	1.05	0.95	;
	105	1	142.283606895	14.2283606895	0	0	4	1.00415114919	-8.10332160079	154	1	1.1	0.9	;
	106	2	168.390034304	16.8390034304	0	0	4	1.01216887832	-6.25010376404	154	1	1.1	0.9	;
	107	1	4.58691418427	3.19730023218	0	0	4	1.00542296324	-7.07137024204	345	1	1.05	0.95	;
	108	1	873.993151617	87.3993151617	0	0	4	1.01113061409	-7.12867176738	345	1	1.05	0.95	;
	109	1	457.682241766	45.7682241766	0	0	4	1.00878058817	-7.42517153924	345	1	1.05	0.95	;
	110	1	267.840324189	26.7840324189	0	0	4	1.00359146975	-8.53738349861	154	1	1.1	0.9	;
	111	1	169.61307282	16.961307282	0	0	4	1.0079808785	-6.68528450567	345	1	1.05	0.95	;
	112	1	31.3571192815	3.13571192815	0	0	4	1.00489894005	-7.84379328132	154	1	1.1	0.9	;
	113	1	666.542467231	66.6542467231	0	0	4	1.00243653583	-8.63287675584	154	1	1.1	0.9	;
	114	1	73.3524287755	7.37292906216	0	0	4	1.00754986532	-7.13578099394	154	1	1.1	0.9	;
	115	1	32.1504628124	3.21504628124	0	0	4	1.0075181397	-6.89391685819	154	1	1.1	0.9	;
	116	1	45.3858546102	4.53858546102	0	0	4	1.00560416685	-7.32433367967	154	1	1.1	0.9	;
	117	1	261.670356374	27.4046173367	0	0	4	1.00868213454	-7.09547896729	154	1	1.1	0.9	;
	118	1	99.5288379711	9.95288379711	0	0	4	1.0086362151	-4.56219730276	154	1	1.1	0.9	;
	119	1	100.267614563	10.0267614563	0	0	4	1.00756588443	-6.00133669567	345	1	1.05	0.95	;
	120	1	41.1120996428	4.11120996428	0	0	4	1.00839998415	-6.19747512088	154	1	1.1	0.9	;
	121	1	95.6752641563	9.56752641563	0	0	4	1.00816906228	-7.02811840255	154	1	1.1	0.9	;
	122	1	79.2286001594	7.92286001594	0	0	4	1.00604045484	-6.88561951976	154	1	1.1	0.9	;
	123	1	64.4389941322	6.44389941322	0	0	4	1.00665295034	-6.53840792268	154	1	1.1	0.9	;
	124	2	125.229237036	12.5229237036	0	0	4	1.00909661099	-1.20144911732	345	1	1.05	0.95	;
	125	1	26.6708885794	2.66708885794	0	0	4	1.00620330929	-6.73075542864	154	1	1.1	0.9	;
	126	1	444.321597615	44.4321597615	0	0	4	1.00601801077	-6.29017912142	345	1	1.05	0.95	;
	127	1	350.122864496	35.0122864496	0	0	4	1.00354466194	-7.33365226826	154	1	1.1	0.9	;
	128	1	529.001151884	52.9001151884	0	0	4	1.00117378395	-8.42326204009	154	1	1.1	0.9	;
	129	1	62.6132032372	6.26132032372	0	0	4	1.00808324471	-8.61195762193	154	1	1.1	0.9	;
	130	1	35.9451693464	7.92075282004	0	0	4	1.00599826597	-6.90533889097	345	1	1.05	0.95	;
	131	1	202.982013799	20.2982013799	0	0	4	1.00352810607	-8.14909162178	154	1	1.1	0.9	;
	132	1	108.961606064	10.8961606064	0	0	4	1.00883764831	-8.39457762222	154	1	1.1	0.9	;
	133	1	297.32938631	32.6127878829	0	0	4	1.00152083232	-6.96860896159	345	1	1.05	0.95	;
	134	1	743.01976146	74.301976146	0	0	4	1.00160196726	-6.43134404328	345	1	1.05	0.95	;
	135	1	157.115282928	15.7687523428	0	0	4	1.00781876905	-8.61398883463	154	1	1.1	0.9	;
	136	1	181.333091984	18.1333091984	0	0	4	1.00708804301	-7.5730833605	345	1	1.05	0.95	;
	137	2	2132.05008333	215.801887008	0	0	4	0.99728812322	-7.20858967266	345	1	1.05	0.95	;
	138	1	46.6333460335	4.66333460335	0	0	4	1.00428818135	-7.57479216505	154	1	1.1	0.9	;
	139	1	49.4752299363	4.94752299364	0	0	4	1.0099358305	-8.36807119877	154	1	1.1	0.9	;
	140	1	24.4927500202	5.72129633573	0	0	4	1.00720642111	-7.8046482567	154	1	1.1	0.9	;
	141	1	59.469550011	5.9469550011	0	0	4	1.00863952061	-7.79895902957	154	1	1.1	0.9	;
	142	1	80.8064810294	8.08064810294	0	0	4	1.00237272826	-7.58340760324	154	1	1.1	0.9	;
	143	1	116.110877666	11.6183390996	0	0	4	1.00913897656	-7.91034158634	154	1	1.1	0.9	;
	144	1	53.1909220399	5.34454857928	0	0	4	1.00813066984	-8.62130418661	154	1	1.1	0.9	;
	145	1	51.4829025989	16.6017709129	0	0	4	1.00748517999	-8.2232363768	154	1	1.1	0.9	;
	146	1	-3.44286274482	4.85563195453	0	0	5	0.995018522098	-0.398559930208	154	1	1.1	0.9	;
	147	1	65.8205441006	6.58205441006	0	0	5	1.0036640574	-7.24509367353	154	1	1.1	0.9	;
	148	1	356.360007105	35.6360007105	0	0	5	0.984605303797	-5.53579216963	154	1	1.1	0.9	;
	149	2	1409.79740119	140.979740119	0	0	5	0.991670052695	-3.59223492054	345	1	1.05	0.95	;
	150	1	653.319167708	78.3985929924	0	0	5	1.00028167575	2.20324226342	345	1	1.05	0.95	;
	151	1	516.699836435	66.2591710799	0	0	5	1.00226603165	2.31730000257	345	1	1.05	0.95	;
	152	1	296.953908851	29.6953908851	0	0	5	0.994596970882	-2.85697441521	345	1	1.05	0.95	;
	153	1	232.695756158	23.2695756158	0	0	5	0.99304944862	-1.07570304762	154	1	1.1	0.9	;
	154	1	159.271553617	15.9272637956	0	0	5	0.990024001345	-4.08008792643	154	1	1.1	0.9	;
	155	1	446.281395715	44.630165412	0	0	5	0.990297329502	-4.39961196124	154	1	1.1	0.9	;
	156	1	480.812333593	48.0812333593	0	0	5	0.991810385343	-3.06707555935	154	1	1.1	0.9	;
	157	1	226.349715552	22.6349715552	0	0	5	0.990753297698	-4.57550476013	154	1	1.1	0.9	;
	158	1	-553.83644543	59.2161597041	0	0	5	1.00292935177	2.64366839751	154	1	1.1	0.9	;
	159	1	411.853482883	41.1853482883	0	0	5	0.994008961023	-1.87133221463	345	1	1.05	0.95	;
	160	1	1175.41816848	117.541816848	0	0	5	0.994420996976	-5.30306668814	154	1	1.1	0.9	;
	161	1	193.819013957	19.3819013957	0	0	5	0.998676246821	-3.01305358951	345	1	1.05	0.95	;
	162	1	69.9359448686	6.99359448686	0	0	5	0.997294374518	-4.43469122645	154	1	1.1	0.9	;
	163	1	73.5588279085	7.35588279085	0	0	5	0.997181493751	-0.658354993705	345	1	1.05	0.95	;
	164	1	59.2865329991	6.18620036243	0	0	5	0.998233934113	-3.75183318185	154	1	1.1	0.9	;
	165	1	1803.77354663	180.377942541	0	0	5	0.998849819636	1.03571769929	345	1	1.05	0.95	;
	166	2	571.082441027	57.9376107293	0	0	5	1.00876966307	3.8301402468	345	1	1.05	0.95	;
	167	2	2407.37143082	240.737892897	0	0	5	1.00680377513	3.44358217668	345	1	1.05	0.95	;
	168	1	153.30856592	15.330856592	0	0	5	1.00172537308	0.875515253908	765	1	1.05	0.95	;
	169	1	43.2049854807	4.32049854807	0	0	5	0.998021717854	-4.39727519667	154	1	1.1	0.9	;
	170	1	171.046532353	18.9850959648	0	0	5	0.995458976922	-0.250578057466	154	1	1.1	0.9	;
	171	1	29.6613663324	5.31463111511	0	0	5	1.00042327911	-3.46007908712	345	1	1.05	0.95	;
	172	2	431.880316514	56.0501529036	0	0	5	0.996097961267	2.28935122769	154	1	1.1	0.9	;
	173	1	37.8960315957	5.81628526731	0	0	5	0.999757241613	-3.36991105887	345	1	1.05	0.95	;
	174	1	421.760841814	42.1760841814	0	0	5	0.996751147301	-3.06409860074	345	1	1.05	0.95	;
	175	2	189.241789095	19.1226062226	0	0	5	1.00566755565	6.0066408698	765	1	1.05	0.95	;
	176	1	554.132372176	55.4132372176	0	0	5	0.994647371304	-2.18655090836	345	1	1.05	0.95	;
	177	1	708.507598189	70.851545075	0	0	5	0.991921656679	-1.40197767491	345	1	1.05	0.95	;
	178	1	800.872215539	80.0875734074	0	0	5	0.985809917446	-2.53859431954	154	1	1.1	0.9	;
	179	1	427.471106822	42.7471106822	0	0	5	1.0004807646	4.09325916203	345	1	1.05	0.95	;
	180	1	399.811880464	39.9811880464	0	0	5	0.995474954007	-3.79559926462	154	1	1.1	0.9	;
	181	1	362.455228499	36.2455228499	0	0	5	0.999712719653	3.51276751661	345	1	1.05	0.95	;
	182	1	654.337477985	65.4352338951	0	0	5	0.986716379042	-2.64054659382	345	1	1.05	0.95	;
	183	1	296.004848312	29.6009837912	0	0	5	0.992287182763	-1.4695690072	345	1	1.05	0.95	;
	184	1	584.849284165	58.4861421276	0	0	5	0.99994765017	3.96876299028	345	1	1.05	0.95	;
	185	1	334.239325015	33.4239325015	0	0	5	0.998474339734	3.37312849478	154	1	1.1	0.9	;
	186	2	500.476837361	50.0509504519	0	0	5	1.00004463686	3.94320645047	345	1	1.05	0.95	;
	187	1	69.1740520228	6.91740520228	0	0	5	1.00001484062	3.93373611315	345	1	1.05	0.95	;
	188	1	63.1295641328	6.31767208869	0	0	5	1.00158301721	-4.60202429072	154	1	1.1	0.9	;
	189	1	113.470836029	11.5322900253	0	0	5	0.996922247281	-3.055053712	154	1	1.1	0.9	;
	190	3	203.839455277	20.6933320617	0	0	5	1	0	345	1	1.05	0.95	;
	191	1	287.992808476	28.8007682857	0	0	5	0.992759568211	-4.04586510033	154	1	1.1	0.9	;
	192	1	143.85430666	14.3861645018	0	0	5	0.995033648917	-3.28533505902	154	1	1.1	0.9	;
	193	2	41.0351240911	4.10351240911	0	0	5	1.00491016543	-2.85847593046	345	1	1.05	0.95	;
];

% generator data
%	bus	Pg	Qg	Qmax	Qmin	Vg	mBase	status	Pmax	Pmin	Pc1	Pc2	Qc1min	Qc1max	Qc2min	Qc2max	ramp_agc	ramp_10	ramp_30	ramp_q	apf
mpc.gen = [
	3	0	0	362.5	-362.5	1.00769738082	100	0	725	377	0	0	0	0	0	0	0	120.8333333	362.5	362.5	0	;
	3	0	0	362.5	-362.5	1.00769738082	100	0	725	377	0	0	0	0	0	0	0	120.8333333	362.5	362.5	0	;
	3	0	0	437.1	-437.1	1.00769738082	100	0	874.2	454.584	0	0	0	0	0	0	0	145.7	437.1	437.1	0	;
	4	0	0	262.15	-262.15	1.00891852738	100	0	524.3	272.636	0	0	0	0	0	0	0	87.38333333	262.15	262.15	0	;
	4	0	0	429.2	-429.2	1.00891852738	100	0	858.4	446.368	0	0	0	0	0	0	0	143.0666667	429.2	429.2	0	;
	4	0	0	429.2	-429.2	1.00891852738	100	0	858.4	446.368	0	0	0	0	0	0	0	143.0666667	429.2	429.2	0	;
	8	0	0	423.8	-423.8	1.00789246998	100	0	847.6	440.752	0	0	0	0	0	0	0	141.2666667	423.8	423.8	0	;
	8	0	0	423.8	-423.8	1.00789246998	100	0	847.6	440.752	0	0	0	0	0	0	0	141.2666667	423.8	423.8	0	;
	8	0	0	257.75	-257.75	1.00789246998	100	0	515.5	268.06	0	0	0	0	0	0	0	85.91666667	257.75	257.75	0	;
	9	0	0	57.705	-57.705	1.01026337656	100	0	115.41	60.0132	0	0	0	0	0	0	0	19.235	57.705	57.705	0	;
	9	0	0	18.5	-18.5	1.01026337656	100	0	37	19.24	0	0	0	0	0	0	0	6.166666667	18.5	18.5	0	;
	10	0	0	300	-300	1.00986040354	100	0	600	312	0	0	0	0	0	0	0	100	300	300	0	;
	10	288.618276563	3.77588292729	150	-150	1.00986040354	100	1	300	156	0	0	0	0	0	0	0	50	150	150	0	;
	19	0	0	184.5865	-184.5865	1.01013441628	100	0	369.173	191.96996	0	0	0	0	0	0	0	61.52883333	184.5865	184.5865	0	;
	19	352.026038123	-9.42488562706	184.5865	-184.5865	1.01013441628	100	1	369.173	191.96996	0	0	0	0	0	0	0	61.52883333	184.5865	184.5865	0	;
	20	342.403946267	5.53755436793	181.9055	-181.9055	1.00912109023	100	1	363.811	189.18172	0	0	0	0	0	0	0	60.63516667	181.9055	181.9055	0	;
	21	439.096345852	-2.61284948362	225	-225	1.00708808804	100	1	450	234	0	0	0	0	0	0	0	75	225	225	0	;
	21	0	0	225	-225	1.00708808804	100	0	450	234	0	0	0	0	0	0	0	75	225	225	0	;
	21	0	0	225	-225	1.00708808804	100	0	450	234	0	0	0	0	0	0	0	75	225	225	0	;
	21	0	0	225	-225	1.00708808804	100	0	450	234	0	0	0	0	0	0	0	75	225	225	0	;
	24	0	0	10.5	-10.5	1.00873676685	100	0	21	10.92	0	0	0	0	0	0	0	3.5	10.5	10.5	0	;
	26	0	0	0	0	1.00843402539	100	0	0	0	0	0	0	0	0	0	0	0	0	0	0	;
	27	0	0	63.5	-63.5	1.00913466226	100	0	127	66.04	0	0	0	0	0	0	0	21.16666667	63.5	63.5	0	;
	27	177.171067096	8.32791234308	93.65	-93.65	1.00913466226	100	1	187.3	97.396	0	0	0	0	0	0	0	31.21666667	93.65	93.65	0	;
	34	216.221012619	9.61432031788	112.5	-112.5	1.00849960302	100	1	225	117	0	0	0	0	0	0	0	37.5	112.5	112.5	0	;
	34	0	0	112.5	-112.5	1.00849960302	100	0	225	117	0	0	0	0	0	0	0	37.5	112.5	112.5	0	;
	34	0	0	112.5	-112.5	1.00849960302	100	0	225	117	0	0	0	0	0	0	0	37.5	112.5	112.5	0	;
	34	211.267989045	9.61432031788	112.5	-112.5	1.00849960302	100	1	225	117	0	0	0	0	0	0	0	37.5	112.5	112.5	0	;
	34	210.77192913	9.61432031788	112.5	-112.5	1.00849960302	100	1	225	117	0	0	0	0	0	0	0	37.5	112.5	112.5	0	;
	34	211.267989045	9.61432031788	112.5	-112.5	1.00849960302	100	1	225	117	0	0	0	0	0	0	0	37.5	112.5	112.5	0	;
	34	0	0	112.5	-112.5	1.00849960302	100	0	225	117	0	0	0	0	0	0	0	37.5	112.5	112.5	0	;
	34	210.77192913	9.61432031788	112.5	-112.5	1.00849960302	100	1	225	117	0	0	0	0	0	0	0	37.5	112.5	112.5	0	;
	34	0	0	251.7695	-251.7695	1.00849960302	100	0	503.539	261.84028	0	0	0	0	0	0	0	83.92316667	251.7695	251.7695	0	;
	34	0	0	254.454	-254.454	1.00849960302	100	0	508.908	264.63216	0	0	0	0	0	0	0	84.818	254.454	254.454	0	;
	34	0	0	225	-225	1.00849960302	100	0	450	234	0	0	0	0	0	0	0	75	225	225	0	;
	34	438.497855418	-6.5715304733	225	-225	1.00849960302	100	1	450	234	0	0	0	0	0	0	0	75	225	225	0	;
	34	0	0	225	-225	1.00849960302	100	0	450	234	0	0	0	0	0	0	0	75	225	225	0	;
	34	0	0	287.3	-287.3	1.00849960302	100	0	574.6	298.792	0	0	0	0	0	0	0	95.76666667	287.3	287.3	0	;
	34	558.006427394	-30.5123639945	287.3	-287.3	1.00849960302	100	1	574.6	298.792	0	0	0	0	0	0	0	95.76666667	287.3	287.3	0	;
	34	0	0	187.8	-187.8	1.00849960302	100	0	375.6	195.312	0	0	0	0	0	0	0	62.6	187.8	187.8	0	;
	34	0	0	187.8	-187.8	1.00849960302	100	0	375.6	195.312	0	0	0	0	0	0	0	62.6	187.8	187.8	0	;
	34	0	0	187.8	-187.8	1.00849960302	100	0	375.6	195.312	0	0	0	0	0	0	0	62.6	187.8	187.8	0	;
	36	0	0	0	0	1.00992135166	100	0	0	0	0	0	0	0	0	0	0	0	0	0	0	;
	36	0	0	0	0	1.00992135166	100	0	0	0	0	0	0	0	0	0	0	0	0	0	0	;
	36	0	0	206.3	-206.3	1.00992135166	100	0	412.6	214.552	0	0	0	0	0	0	0	68.76666667	206.3	206.3	0	;
	36	133.433157323	8.34613980014	73.157	-73.157	1.00992135166	100	1	146.314	76.08328	0	0	0	0	0	0	0	24.38566667	73.157	73.157	0	;
	37	0	0	12	-12	1.00734303945	100	0	24	12.48	0	0	0	0	0	0	0	4	12	12	0	;
	39	0	0	240.845	-240.845	1.00299273756	100	0	481.69	250.4788	0	0	0	0	0	0	0	80.28166667	240.845	240.845	0	;
	39	0	0	240.845	-240.845	1.00299273756	100	0	481.69	250.4788	0	0	0	0	0	0	0	80.28166667	240.845	240.845	0	;
	40	0	0	30	-30	1.00547028783	100	0	60	31.2	0	0	0	0	0	0	0	10	30	30	0	;
	40	0	0	375.6	-375.6	1.00547028783	100	0	751.2	390.624	0	0	0	0	0	0	0	125.2	375.6	375.6	0	;
	40	0	0	0	0	1.00547028783	100	0	0	0	0	0	0	0	0	0	0	0	0	0	0	;
	40	0	0	0	0	1.00547028783	100	0	0	0	0	0	0	0	0	0	0	0	0	0	0	;
	40	859.936403796	-52.786398698	435	-435	1.00547028783	100	1	870	348	0	0	0	0	0	0	0	95.7	287.1	435	0	;
	40	859.936403796	-52.786398698	435	-435	1.00547028783	100	1	870	348	0	0	0	0	0	0	0	95.7	287.1	435	0	;
	40	859.936403796	-52.786398698	435	-435	1.00547028783	100	1	870	348	0	0	0	0	0	0	0	95.7	287.1	435	0	;
	40	859.936403796	-52.786398698	435	-435	1.00547028783	100	1	870	348	0	0	0	0	0	0	0	95.7	287.1	435	0	;
	43	132.346331397	8.60021583003	72.394	-72.394	1.00391247258	100	1	144.788	75.28976	0	0	0	0	0	0	0	24.13133333	72.394	72.394	0	;
	43	0	0	0	0	1.00391247258	100	0	0	0	0	0	0	0	0	0	0	0	0	0	0	;
	45	0	0	255.9	-255.9	1.00619708413	100	0	511.8	266.136	0	0	0	0	0	0	0	85.3	255.9	255.9	0	;
	47	0	0	0	0	1.00316352379	100	0	0	0	0	0	0	0	0	0	0	0	0	0	0	;
	47	0	0	0	0	1.00316352379	100	0	0	0	0	0	0	0	0	0	0	0	0	0	0	;
	47	0	0	0	0	1.00316352379	100	0	0	0	0	0	0	0	0	0	0	0	0	0	0	;
	47	0	0	0	0	1.00316352379	100	0	0	0	0	0	0	0	0	0	0	0	0	0	0	;
	47	0	0	434.25	-434.25	1.00316352379	100	0	868.5	451.62	0	0	0	0	0	0	0	144.75	434.25	434.25	0	;
	47	0	0	431.65	-431.65	1.00316352379	100	0	863.3	448.916	0	0	0	0	0	0	0	143.8833333	431.65	431.65	0	;
	48	0	0	218.05	-218.05	1.00597020504	100	0	436.1	226.772	0	0	0	0	0	0	0	72.68333333	218.05	218.05	0	;
	48	0	0	189.19	-189.19	1.00597020504	100	0	378.38	196.7576	0	0	0	0	0	0	0	63.06333333	189.19	189.19	0	;
	48	365.727869184	8.86922941433	189.19	-189.19	1.00597020504	100	1	378.38	196.7576	0	0	0	0	0	0	0	63.06333333	189.19	189.19	0	;
	49	0	0	384.915	-384.915	1.00376969895	100	0	769.83	400.3116	0	0	0	0	0	0	0	128.305	384.915	384.915	0	;
	53	0	0	250.375	-250.375	1.00909365729	100	0	500.75	260.39	0	0	0	0	0	0	0	83.45833333	250.375	250.375	0	;
	53	0	0	266.5	-266.5	1.00909365729	100	0	533	277.16	0	0	0	0	0	0	0	88.83333333	266.5	266.5	0	;
	53	0	0	191	-191	1.00909365729	100	0	382	198.64	0	0	0	0	0	0	0	63.66666667	191	191	0	;
	53	0	0	423	-423	1.00909365729	100	0	846	439.92	0	0	0	0	0	0	0	141	423	423	0	;
	53	0	0	0	0	1.00909365729	100	0	0	0	0	0	0	0	0	0	0	0	0	0	0	;
	53	0	0	0	0	1.00909365729	100	0	0	0	0	0	0	0	0	0	0	0	0	0	0	;
	53	483.809824269	-0.682612994149	250	-250	1.00909365729	100	1	500	200	0	0	0	0	0	0	0	55	165	250	0	;
	53	483.809824269	-0.682612994149	250	-250	1.00909365729	100	1	500	200	0	0	0	0	0	0	0	55	165	250	0	;
	53	483.809824269	-0.682612994149	250	-250	1.00909365729	100	1	500	200	0	0	0	0	0	0	0	55	165	250	0	;
	53	483.809824269	-0.682612994149	250	-250	1.00909365729	100	1	500	200	0	0	0	0	0	0	0	55	165	250	0	;
	53	483.809824269	-0.682612994149	250	-250	1.00909365729	100	1	500	200	0	0	0	0	0	0	0	55	165	250	0	;
	53	483.809824269	-0.682612994149	250	-250	1.00909365729	100	1	500	200	0	0	0	0	0	0	0	55	165	250	0	;
	53	1008.03586673	-66.9434241737	510	-510	1.00909365729	100	1	1020	408	0	0	0	0	0	0	0	112.2	336.6	510	0	;
	53	1008.03586673	-66.9434241737	510	-510	1.00909365729	100	1	1020	408	0	0	0	0	0	0	0	112.2	336.6	510	0	;
	57	0	0	50.85	-50.85	1.00294837885	100	0	101.7	52.884	0	0	0	0	0	0	0	16.95	50.85	50.85	0	;
	58	0	0	0	0	1.00883955647	100	0	0	0	0	0	0	0	0	0	0	0	0	0	0	;
	59	0	0	173.165	-173.165	1.00965610848	100	0	346.33	180.0916	0	0	0	0	0	0	0	57.72166667	173.165	173.165	0	;
	59	0	0	0	0	1.00965610848	100	0	0	0	0	0	0	0	0	0	0	0	0	0	0	;
	59	0	0	0	0	1.00965610848	100	0	0	0	0	0	0	0	0	0	0	0	0	0	0	;
	59	0	0	0	0	1.00965610848	100	0	0	0	0	0	0	0	0	0	0	0	0	0	0	;
	59	0	0	0	0	1.00965610848	100	0	0	0	0	0	0	0	0	0	0	0	0	0	0	;
	59	0	0	0	0	1.00965610848	100	0	0	0	0	0	0	0	0	0	0	0	0	0	0	;
	59	0	0	0	0	1.00965610848	100	0	0	0	0	0	0	0	0	0	0	0	0	0	0	;
	59	483.169586103	0.628535032673	250	-250	1.00965610848	100	1	500	200	0	0	0	0	0	0	0	55	165	250	0	;
	59	483.169586103	0.628535032673	250	-250	1.00965610848	100	1	500	200	0	0	0	0	0	0	0	55	165	250	0	;
	59	1037.3358233	-65.3650568903	525	-525	1.00965610848	100	1	1050	420	0	0	0	0	0	0	0	115.5	346.5	525	0	;
	59	1037.3358233	-65.3650568903	525	-525	1.00965610848	100	1	1050	420	0	0	0	0	0	0	0	115.5	346.5	525	0	;
	62	0	0	0	0	1.00688368424	100	0	0	0	0	0	0	0	0	0	0	0	0	0	0	;
	64	0	0	265.2205	-265.2205	1.00579281371	100	0	530.441	275.82932	0	0	0	0	0	0	0	88.40683333	265.2205	265.2205	0	;
	70	0	0	215.6	-215.6	0.996673365736	100	0	431.2	224.224	0	0	0	0	0	0	0	71.86666667	215.6	215.6	0	;
	71	1025.06179737	-61.3967991702	520	-520	0.992962081842	100	1	1040	416	0	0	0	0	0	0	0	114.4	343.2	520	0	;
	73	0	0	0	0	0.992585430419	100	0	0	0	0	0	0	0	0	0	0	0	0	0	0	;
	73	0	0	0	0	0.992585430419	100	0	0	0	0	0	0	0	0	0	0	0	0	0	0	;
	73	582.898636862	-8.45522735436	297.5	-297.5	0.992585430419	100	1	595	238	0	0	0	0	0	0	0	65.45	196.35	297.5	0	;
	73	580.219710695	-8.45522735436	297.5	-297.5	0.992585430419	100	1	595	238	0	0	0	0	0	0	0	65.45	196.35	297.5	0	;
	79	0	0	424	-424	0.98531356439	100	0	848	440.96	0	0	0	0	0	0	0	141.3333333	424	424	0	;
	75	459.254073233	-40.2091184668	511	-511	0.995088787065	100	1	1022	408.8	0	0	0	0	0	0	0	112.42	337.26	511	0	;
	75	721.892500701	-40.2091184668	511	-511	0.995088787065	100	1	1022	408.8	0	0	0	0	0	0	0	112.42	337.26	511	0	;
	82	932.042706229	-36.1363559195	475	-475	1.00709482039	100	1	950	902.5	0	0	0	0	0	0	0	28.5	85.5	475	0	;
	82	932.042706229	-36.1363559195	475	-475	1.00709482039	100	1	950	902.5	0	0	0	0	0	0	0	28.5	85.5	475	0	;
	82	981.402989767	-43.4520635578	500	-500	1.00709482039	100	1	1000	950	0	0	0	0	0	0	0	30	90	500	0	;
	82	981.402989767	-43.4520635578	500	-500	1.00709482039	100	1	1000	950	0	0	0	0	0	0	0	30	90	500	0	;
	82	981.402989767	-43.4520635578	500	-500	1.00709482039	100	1	1000	950	0	0	0	0	0	0	0	30	90	500	0	;
	82	981.402989767	-43.4520635578	500	-500	1.00709482039	100	1	1000	950	0	0	0	0	0	0	0	30	90	500	0	;
	82	1377.53363645	-107.578418809	700	-700	1.00709482039	100	1	1400	1330	0	0	0	0	0	0	0	42	126	700	0	;
	87	336.033519083	37.4333823954	180.8	-180.8	0.999431801861	100	1	361.6	188.032	0	0	0	0	0	0	0	60.26666667	180.8	180.8	0	;
	98	0	0	44	-44	1.00287180886	100	0	88	45.76	0	0	0	0	0	0	0	14.66666667	44	44	0	;
	99	41.2843538079	1.03657908462	24.15	-24.15	1.00250773967	100	1	48.3	25.116	0	0	0	0	0	0	0	8.05	24.15	24.15	0	;
	100	0	0	225	-225	1.01114828048	100	0	450	234	0	0	0	0	0	0	0	75	225	225	0	;
	100	0	0	225	-225	1.01114828048	100	0	450	234	0	0	0	0	0	0	0	75	225	225	0	;
	100	0	0	225	-225	1.01114828048	100	0	450	234	0	0	0	0	0	0	0	75	225	225	0	;
	100	534.100370796	-7.47303501106	275	-275	1.01114828048	100	1	550	220	0	0	0	0	0	0	0	60.5	181.5	275	0	;
	100	483.311865996	-2.05764036655	250	-250	1.01114828048	100	1	500	200	0	0	0	0	0	0	0	55	165	250	0	;
	100	0	0	0	0	1.01114828048	100	0	0	0	0	0	0	0	0	0	0	0	0	0	0	;
	100	0	0	0	0	1.01114828048	100	0	0	0	0	0	0	0	0	0	0	0	0	0	0	;
	100	483.311865996	-2.05764036655	250	-250	1.01114828048	100	1	500	200	0	0	0	0	0	0	0	55	165	250	0	;
	100	483.311865996	-2.05764036655	250	-250	1.01114828048	100	1	500	200	0	0	0	0	0	0	0	55	165	250	0	;
	100	1006.5165562	-65.1941675976	509.515	-509.515	1.01114828048	100	1	1019.03	407.612	0	0	0	0	0	0	0	112.0933	336.2799	509.515	0	;
	100	1006.5165562	-65.1941675976	509.515	-509.515	1.01114828048	100	1	1019.03	407.612	0	0	0	0	0	0	0	112.0933	336.2799	509.515	0	;
	106	996.485993503	-12.3521603539	509	-509	1.01216887832	100	1	1018	407.2	0	0	0	0	0	0	0	111.98	335.94	509	0	;
	108	0	0	359.2	-359.2	1.01113061409	100	0	718.4	373.568	0	0	0	0	0	0	0	119.7333333	359.2	359.2	0	;
	124	939.333588124	-54.9503982698	475	-475	1.00909661099	100	1	950	902.5	0	0	0	0	0	0	0	28.5	85.5	475	0	;
	124	939.333588124	-54.9503982698	475	-475	1.00909661099	100	1	950	902.5	0	0	0	0	0	0	0	28.5	85.5	475	0	;
	124	989.09408707	-60.4262171717	500	-500	1.00909661099	100	1	1000	950	0	0	0	0	0	0	0	30	90	500	0	;
	124	989.09408707	-60.4262171717	500	-500	1.00909661099	100	1	1000	950	0	0	0	0	0	0	0	30	90	500	0	;
	124	989.09408707	-60.4262171717	500	-500	1.00909661099	100	1	1000	950	0	0	0	0	0	0	0	30	90	500	0	;
	124	989.09408707	-60.4262171717	500	-500	1.00909661099	100	1	1000	950	0	0	0	0	0	0	0	30	90	500	0	;
	128	0	0	57.623	-57.623	1.00117378395	100	0	115.246	59.92792	0	0	0	0	0	0	0	19.20766667	57.623	57.623	0	;
	134	0	0	262.75	-262.75	1.00160196726	100	0	525.5	273.26	0	0	0	0	0	0	0	87.58333333	262.75	262.75	0	;
	134	0	0	432.1	-432.1	1.00160196726	100	0	864.2	449.384	0	0	0	0	0	0	0	144.0333333	432.1	432.1	0	;
	134	0	0	247.3	-247.3	1.00160196726	100	0	494.6	257.192	0	0	0	0	0	0	0	82.43333333	247.3	247.3	0	;
	134	0	0	247.3	-247.3	1.00160196726	100	0	494.6	257.192	0	0	0	0	0	0	0	82.43333333	247.3	247.3	0	;
	137	325.078926485	-15.7795404937	170	-170	0.99728812322	100	1	340	136	0	0	0	0	0	0	0	37.4	112.2	170	0	;
	137	314.3851755	-14.3025825591	164.3	-164.3	0.99728812322	100	1	328.6	131.44	0	0	0	0	0	0	0	36.146	108.438	164.3	0	;
	156	0	0	185.35	-185.35	0.991810385343	100	0	370.7	192.764	0	0	0	0	0	0	0	61.78333333	185.35	185.35	0	;
	160	0	0	0	0	0.994420996976	100	0	0	0	0	0	0	0	0	0	0	0	0	0	0	;
	166	687.1784812	86.6712520408	350	-350	1.00876966307	100	1	700	665	0	0	0	0	0	0	0	21	63	350	0	;
	166	687.1784812	86.6712520408	350	-350	1.00876966307	100	1	700	665	0	0	0	0	0	0	0	21	63	350	0	;
	166	687.1784812	86.6712520408	350	-350	1.00876966307	100	1	700	665	0	0	0	0	0	0	0	21	63	350	0	;
	166	983.792197043	153.135185784	500	-500	1.00876966307	100	1	1000	950	0	0	0	0	0	0	0	30	90	500	0	;
	166	983.792197043	153.135185784	500	-500	1.00876966307	100	1	1000	950	0	0	0	0	0	0	0	30	90	500	0	;
	167	261.457232887	27.1238508512	150	-150	1.00680377513	100	1	300	156	0	0	0	0	0	0	0	50	150	150	0	;
	167	0	0	225	-225	1.00680377513	100	0	450	234	0	0	0	0	0	0	0	75	225	225	0	;
	167	0	0	225	-225	1.00680377513	100	0	450	234	0	0	0	0	0	0	0	75	225	225	0	;
	167	0	0	435.95	-435.95	1.00680377513	100	0	871.9	453.388	0	0	0	0	0	0	0	145.3166667	435.95	435.95	0	;
	167	0	0	221.4	-221.4	1.00680377513	100	0	442.8	230.256	0	0	0	0	0	0	0	73.8	221.4	221.4	0	;
	172	0	0	22.918	-22.918	0.996097961267	100	0	45.836	23.83472	0	0	0	0	0	0	0	7.639333333	22.918	22.918	0	;
	175	635.913588636	20.0538848817	325	-325	1.00566755565	100	1	650	617.5	0	0	0	0	0	0	0	19.5	58.5	325	0	;
	175	929.828424643	24.2768302128	475	-475	1.00566755565	100	1	950	902.5	0	0	0	0	0	0	0	28.5	85.5	475	0	;
	175	929.828424643	24.2768302128	475	-475	1.00566755565	100	1	950	902.5	0	0	0	0	0	0	0	28.5	85.5	475	0	;
	175	978.782182708	24.9706993295	500	-500	1.00566755565	100	1	1000	950	0	0	0	0	0	0	0	30	90	500	0	;
	175	978.782182708	24.9706993295	500	-500	1.00566755565	100	1	1000	950	0	0	0	0	0	0	0	30	90	500	0	;
	175	1370.72930112	31.2844030143	700	-700	1.00566755565	100	1	1400	1330	0	0	0	0	0	0	0	42	126	700	0	;
	175	1370.72930112	31.2844030143	700	-700	1.00566755565	100	1	1400	1330	0	0	0	0	0	0	0	42	126	700	0	;
	180	0	0	13.15	-13.15	0.995474954007	100	0	26.3	13.676	0	0	0	0	0	0	0	4.383333333	13.15	13.15	0	;
	186	0	0	225	-225	1.00004463686	100	0	450	234	0	0	0	0	0	0	0	75	225	225	0	;
	186	403.244376922	6.93475355922	225	-225	1.00004463686	100	1	450	234	0	0	0	0	0	0	0	75	225	225	0	;
	186	403.244376922	6.93475355922	225	-225	1.00004463686	100	1	450	234	0	0	0	0	0	0	0	75	225	225	0	;
	186	410.693141578	6.93475355922	225	-225	1.00004463686	100	1	450	234	0	0	0	0	0	0	0	75	225	225	0	;
	190	0	0	0	0	1	100	0	0	0	0	0	0	0	0	0	0	0	0	0	0	;
	190	0	0	0	0	1	100	0	0	0	0	0	0	0	0	0	0	0	0	0	0	;
	190	0	0	0	0	1	100	0	0	0	0	0	0	0	0	0	0	0	0	0	0	;
	190	0	0	0	0	1	100	0	0	0	0	0	0	0	0	0	0	0	0	0	0	;
	190	975.805071261	19.1714526073	520	-520	1	100	1	1040	416	0	0	0	0	0	0	0	114.4	343.2	520	0	;
	190	975.805071261	19.1714526073	520	-520	1	100	1	1040	416	0	0	0	0	0	0	0	114.4	343.2	520	0	;
	193	0	0	0	0	1.00491016543	100	0	0	0	0	0	0	0	0	0	0	0	0	0	0	;
	193	0	0	0	0	1.00491016543	100	0	0	0	0	0	0	0	0	0	0	0	0	0	0	;
	193	0	0	0	0	1.00491016543	100	0	0	0	0	0	0	0	0	0	0	0	0	0	0	;
	193	0	0	0	0	1.00491016543	100	0	0	0	0	0	0	0	0	0	0	0	0	0	0	;
	193	0	0	0	0	1.00491016543	100	0	0	0	0	0	0	0	0	0	0	0	0	0	0	;
	193	0	0	0	0	1.00491016543	100	0	0	0	0	0	0	0	0	0	0	0	0	0	0	;
	193	442.065890686	1.83984732038	250	-250	1.00491016543	100	1	500	200	0	0	0	0	0	0	0	55	165	250	0	;
	193	442.065890686	1.83984732038	250	-250	1.00491016543	100	1	500	200	0	0	0	0	0	0	0	55	165	250	0	;
	71	1025.06179737	-61.3967991702	520	-520	0.992962081842	100	1	1040	416	0	0	0	0	0	0	0	114.4	343.2	520	0	;
	60	0	0	247.5	-247.5	1.0075413765	100	0	495	257.4	0	0	0	0	0	0	0	82.5	247.5	247.5	0	;
	42	997.518263098	-77.8125590317	512.7	-512.7	0.994512655875	100	1	1025.4	533.208	0	0	0	0	0	0	0	170.9	512.7	512.7	0	;
	11	0	0	0	0	1.00676727565	100	0	0	0	0	0	0	0	0	0	0	0	0	0	0	;
	172	104.777019248	7.31023588867	59.486	-59.486	0.996097961267	100	1	118.972	61.86544	0	0	0	0	0	0	0	19.8286666667	59.486	59.486	0	;
	82	1377.53363645	-107.578418809	700	-700	1.00709482039	100	1	1400	1330	0	0	0	0	0	0	0	42	126	700	0	;
	75	551.277212017	-44.0245645563	525	-525	0.995088787065	100	1	1050	420	0	0	0	0	0	0	0	115.5	346.5	525	0	;
	64	0	0	298.5855	-298.5855	1.00579281371	100	0	597.171	310.52892	0	0	0	0	0	0	0	99.5285	298.5855	298.5855	0	;
	160	0	0	135	-135	0.994420996976	100	0	270	140.4	0	0	0	0	0	0	0	45	135	135	0	;
	192	0	0	506	-506	0.995033648917	100	0	1012	526.24	0	0	0	0	0	0	0	168.666666667	506	506	0	;
	167	1049.5966702	210.928173502	552.3	-552.3	1.00680377513	100	1	1104.6	574.392	0	0	0	0	0	0	0	184.1	552.3	552.3	0	;
	75	0	0	525	-525	0.995088787065	100	0	1050	546	0	0	0	0	0	0	0	175	525	525	0	;
	62	0	0	135	-135	1.00688368424	100	0	270	140.4	0	0	0	0	0	0	0	45	135	135	0	;
	52	0	0	280.5	-280.5	0.995883326308	100	0	561	291.72	0	0	0	0	0	0	0	93.5	280.5	280.5	0	;
	11	0	0	247.73	-247.73	1.00676727565	100	0	495.46	257.6392	0	0	0	0	0	0	0	82.5766666667	247.73	247.73	0	;
	24	0	0	142.5	-142.5	1.00873676685	100	0	285	148.2	0	0	0	0	0	0	0	47.5	142.5	142.5	0	;
	26	0	0	249	-249	1.00843402539	100	0	498	258.96	0	0	0	0	0	0	0	83	249	249	0	;
...
];

% branch data
%	fbus	tbus	r	x	b	rateA	rateB	rateC	ratio	angle	status	angmin	angmax	Pf	Qf	Pt	Qt
mpc.branch = [
	1	2	0.001953667	0.017794207	0.057753945	904	904	904	0	0	1	-30	30	158.763225288	-42.8536594288	-158.242774013	41.7578799215	;
	1	3	0.002346024	0.021367842	0.069352749	904	904	904	0	0	1	-30	30	124.544852202	-37.3115666054	-124.156473081	33.8390247383	;
	1	66	0.002789894	0.025410654	0.082474341	904	904	904	0	0	1	-30	30	-356.355997289	72.8604385375	360.041920676	-47.5424252977	;
	2	3	0.000230027	0.002463512	0.207508013	2172	2172	2172	0	0	1	-30	30	-66.9529369341	-14.5430260281	66.9631329944	-6.41398680864	;
	2	4	0.001097043	0.009991982	0.032430577	904	904	904	0	0	1	-30	30	77.5570153117	-24.7017926195	-77.4862530969	22.0499575863	;
	2	6	0.004587512	0.041783555	0.135615211	904	904	904	0	0	1	-30	30	59.3508675249	-11.3418408788	-59.1907518451	-0.956542459576	;
	3	4	0.000157872	0.001690763	0.142417379	2172	2172	2172	0	0	1	-30	30	559.148279975	-129.513919293	-558.638962409	120.489196016	;
	3	7	0.001539844	0.014025061	0.04552058	904	904	904	0	0	1	-30	30	107.382149424	-35.4900508744	-107.190600199	32.598076734	;
	3	28	0.000668777	0.007162388	0.603306441	2172	2172	2172	0	0	1	-30	30	-1014.25934334	97.0867099283	1021.14192656	-84.657426635	;
	4	7	0.001330617	0.012119404	0.039335464	904	904	904	0	0	1	-30	30	46.5400626651	-22.5700929641	-46.5062190418	18.8668785014	;
	4	8	0.000413018	0.004423289	0.372585094	2172	2172	2172	0	0	1	-30	30	256.511727951	-18.0806483736	-256.244749398	-16.9476021051	;
	5	16	0.00309813	0.028218105	0.091586372	904	904	904	0	0	1	-30	30	573.796200888	-38.9674840913	-563.692748196	121.665015563	;
	5	20	0.003233724	0.029453105	0.095594761	904	904	904	0	0	1	-30	30	520.159417233	-30.7484192992	-511.50266516	99.8848687336	;
	5	66	0.002753227	0.025076687	0.081390398	904	904	904	0	0	1	-30	30	112.792129372	20.5439186363	-112.429892389	-25.4189172485	;
	5	70	0.001710666	0.015580931	0.050570403	904	904	904	0	0	1	-30	30	181.33099484	43.9428535175	-180.739327709	-43.6275164742	;
	6	8	0.001796592	0.016363559	0.053110546	904	904	904	0	0	1	-30	30	-35.1137371286	-4.85794184592	35.1356692894	-0.332197260735	;
	6	11	0.001545809	0.014079394	0.045696926	904	904	904	0	0	1	-30	30	2.0355666478	-1.60442546343	-2.03549574081	-3.02728102365	;
	7	9	0.000740338	0.006743076	0.021885732	904	904	904	0	0	1	-30	30	9.95229648509	5.72251578311	-9.95123969995	-7.94778855829	;
	7	14	0.000255269	0.002733843	0.230278712	2172	2172	2172	0	0	1	-30	30	50.9863543	8.33640210229	-50.9788498294	-31.7680126286	;
	7	28	0.000583767	0.00625196	0.526618746	2172	2172	2172	0	0	1	-30	30	-1405.24962541	212.213808973	1416.85926046	-141.534200366	;
	8	10	0.000160584	0.000184873	0.901984702	1416	1416	1416	0	0	1	-30	30	-1275.88840234	-8.88070582814	1278.46391095	-79.9611755338	;
	8	11	0.000158062	0.001692798	0.142588761	2172	2172	2172	0	0	1	-30	30	356.626664549	27.4939699658	-356.426895802	-39.8231830417	;
	8	14	0.000269282	0.002883925	0.242920462	2172	2172	2172	0	0	1	-30	30	-148.584117226	-76.0568633912	148.653402212	52.0672553032	;
	9	12	0.000119405	0.000137466	0.167672111	708	708	708	0	0	1	-30	30	166.575968653	-59.3198380409	-166.540491693	42.2496915976	;
	9	13	0.000176983	0.000203752	0.248523638	708	708	708	0	0	1	-30	30	-78.9503365882	-37.7457713707	78.9622344801	12.3896065067	;
	9	15	0.000297907	0.000342968	0.41832935	708	708	708	0	0	1	-30	30	-422.652651926	80.042137304	423.204066773	-122.141557526	;
	10	14	0.00105221	0.00958364	0.031105236	904	904	904	0	0	1	-30	30	-17.8037022472	-2.36148354607	17.8069788469	-0.781659252742	;
	10	24	0.000243464	0.000280289	1.367512381	1416	1416	1416	0	0	1	-30	30	398.81069186	-11.1402695175	-398.422792134	-127.719450574	;
	11	21	0.00015784	0.00169041	0.142387631	2172	2172	2172	0	0	1	-30	30	-190.446314396	-8.23813086997	190.502797239	-5.59368813584	;
	11	25	0.00110679	0.010080759	0.032718716	904	904	904	0	0	1	-30	30	-52.0067189354	-8.90098616597	52.0368260138	5.85458185608	;
	12	14	0.000665432	0.00606083	0.019671394	904	904	904	0	0	1	-30	30	7.0727100924	-1.53331249141	-7.07238203848	-0.470888114387	;
	12	18	0.000258897	0.000298056	0.363549377	708	708	708	0	0	1	-30	30	-191.856810388	-75.8488419465	191.958535969	38.8460442809	;
	13	16	0.000661549	0.006025463	0.019556605	904	904	904	0	0	1	-30	30	-42.3551136489	-15.2877426266	42.3680602776	13.4066669302	;
	13	17	0.000189196	0.000217813	0.265674267	708	708	708	0	0	1	-30	30	-331.356767095	-12.9122288533	331.560224608	-13.9958766516	;
	13	22	0.000821755	0.00748463	0.024292563	904	904	904	0	0	1	-30	30	-43.3711163297	-14.0896966106	43.3875847265	11.7561725331	;
	14	18	9.94e-05	0.000114489	0.558582953	1416	1416	1416	0	0	1	-30	30	-721.230495854	1.91189592306	721.738139797	-58.3600128514	;
	14	19	2.7e-05	6.2e-05	1.344867636	1906	1906	1906	0	0	1	-30	30	-62.414325423	-63.4634703541	62.4153632622	-73.7587751752	;
	14	23	0.000322118	0.000370841	0.45232683	708	708	708	0	0	1	-30	30	269.144041272	1.89571531137	-268.913387489	-47.7397149778	;
	15	16	0.000110729	0.000127478	0.155489196	708	708	708	0	0	1	-30	30	-531.442157298	122.699842523	531.766506106	-138.231126628	;
	16	17	1.61e-05	3.7e-05	7.216516162	5718	5718	5718	0	0	1	-30	30	4457.96423889	-902.415615998	-4454.79275096	171.61006305	;
	16	20	0.000640865	0.005837068	0.018945138	904	904	904	0	0	1	-30	30	-142.382060951	57.9894291985	142.53079267	-58.5687114243	;
	16	22	3.29e-05	7.57e-05	1.640782241	1906	1906	1906	0	0	1	-30	30	-845.629452334	47.3903560105	845.864905258	-214.779766251	;
	16	28	0.000193401	0.002071259	0.697869898	4344	4344	4344	0	0	1	-30	30	-4149.24599533	708.214009659	4182.83007534	-419.700101075	;
	17	18	8.5e-06	1.95e-05	1.693948976	3812	3812	3812	0	0	1	-30	30	3565.18214161	-213.419320263	-3564.12394116	42.7274730289	;
	18	19	3.3e-05	3.8e-05	0.742	2832	2832	2832	0	0	1	-30	30	2096.24580977	-96.332090507	-2094.825418	22.2064841289	;
	18	30	0.000754369	0.006870878	0.022300533	904	904	904	0	0	1	-30	30	-28.4462769444	14.8558232896	28.454140505	-17.0607011525	;
	19	23	4.24e-05	4.88e-05	0.952412124	2832	2832	2832	0	0	1	-30	30	2105.75419537	116.244277619	-2103.90033982	-211.199408013	;
	20	22	0.000644357	0.005868869	0.019048354	904	904	904	0	0	1	-30	30	129.967068443	-60.1049340359	-129.83805855	59.335144912	;
	21	25	0.000588113	0.0053566	0.017385701	904	904	904	0	0	1	-30	30	-37.8413467138	-15.2899352393	37.8508539615	13.6114917895	;
	21	34	9.49e-05	0.001016882	0.085654572	2172	2172	2172	0	0	1	-30	30	-499.16457313	-96.3465916811	499.405634382	90.2301379326	;
	22	29	0.000157753	0.000181614	0.886083495	1416	1416	1416	0	0	1	-30	30	800.867975425	250.094533794	-799.745033667	-339.347376966	;
	22	36	0.000114952	0.001231098	0.103698609	2172	2172	2172	0	0	1	-30	30	51.7114581378	141.104771789	-51.6843830836	-151.410743817	;
	22	38	0.000222736	0.002385427	0.200930653	2172	2172	2172	0	0	1	-30	30	-481.725883152	237.916654997	482.364858478	-251.546190669	;
	22	46	0.000425686	0.004558955	0.384012537	2172	2172	2172	0	0	1	-30	30	-239.083304888	112.083831952	239.393176775	-147.886466291	;
	23	24	5.52e-05	0.000503	0.0147	2712	2712	2712	0	0	1	-30	30	353.792052157	47.9157776877	-353.722925499	-48.782316392	;
	23	32	2.02e-05	4.64e-05	1.00675716	1906	1906	1906	0	0	1	-30	30	1222.97096642	198.538778031	-1222.66193278	-300.323246182	;
	23	33	0.000169968	0.000195677	0.238673524	708	708	708	0	0	1	-30	30	397.322303864	-16.4311229771	-397.058808144	-7.55677109432	;
	24	26	0.000118	0.000136	0.664	1416	1416	1416	0	0	1	-30	30	112.15215797	93.457708907	-112.118796955	-160.96429533	;
	25	26	0.00041452	0.003775492	0.012253963	904	904	904	0	0	1	-30	30	-60.2144788586	-3.47025692147	60.2293016468	2.3595516962	;
	25	34	0.000619848	0.00564564	0.018323828	904	904	904	0	0	1	-30	30	-54.1639740196	-2.44426864145	54.1818824464	0.744496497811	;
	26	32	0.000607908	0.005536893	0.01797087	904	904	904	0	0	1	-30	30	-22.8257412321	-5.27497103085	22.828969462	3.47616112193	;
	26	34	4.5e-05	0.000103577	2.245327702	1906	1906	1906	0	0	1	-30	30	-662.456479778	110.089486975	662.672926371	-337.942310455	;
	27	34	9.33e-05	0.000999417	0.336734	4344	4344	4344	0	0	1	-30	30	463.718466754	4.73411253581	-463.521016379	-36.8888776835	;
	28	38	0.001685665	0.015353221	0.049831335	904	904	904	0	0	1	-30	30	481.105707597	-31.339466969	-477.251887835	61.3821467807	;
	28	41	0.002015591	0.018358223	0.059584548	904	904	904	0	0	1	-30	30	-33.4712283858	69.3133418518	33.5972651106	-74.1450003638	;
	28	50	9.99e-05	0.00321	1.63	7290	7290	7290	0	0	1	-30	30	1992.03911935	-53.3440357135	-1988.13663676	13.273083139	;
	28	80	0.000122152	0.003924627	7.991861101	14580	14580	14580	0	0	1	-30	30	-8181.36790287	1439.06842225	8265.93122632	473.091300805	;
	29	30	8.04e-06	9.26e-06	0.04515506	1416	1416	1416	0	0	1	-30	30	665.862723951	66.7009691344	-665.827402661	-71.2661297657	;
	29	36	3.7e-05	8.52e-05	1.846241882	1906	1906	1906	0	0	1	-30	30	-485.884418297	190.02269241	485.999345229	-378.075340804	;
	30	31	0.00033011	0.003006676	0.009758648	904	904	904	0	0	1	-30	30	177.330493723	38.5992837504	-177.22376971	-38.6208555678	;
	31	33	0.000235829	0.000271499	0.331156608	708	708	708	0	0	1	-30	30	-179.449130732	21.1738867322	179.527194064	-54.7551497139	;
	31	36	0.00107165	0.0097607	0.031679912	904	904	904	0	0	1	-30	30	-60.3984887945	-12.6613011437	60.4382371514	9.79769318751	;
	32	33	6.05e-05	6.97e-05	0.1912274	1062	1062	1062	0	0	1	-30	30	434.860989433	48.6139382043	-434.746547758	-67.9375240778	;
	32	37	0.000239942	0.002569698	0.216452349	2172	2172	2172	0	0	1	-30	30	28.4955705549	43.9935958678	-28.4865221001	-65.8930246447	;
	32	44	0.000338016	0.003620039	0.304925228	2172	2172	2172	0	0	1	-30	30	-76.6736425939	71.6526838027	76.7184054981	-102.117517178	;
	34	37	6.47e-05	0.000692975	0.058371101	2172	2172	2172	0	0	1	-30	30	37.1368993021	161.882806741	-37.1187342798	-167.618202246	;
	35	37	0.000950447	0.008656772	0.028096937	904	904	904	0	0	1	-30	30	-41.3158157288	-14.662976326	41.3335003931	11.9772854683	;
	35	40	0.001104834	0.01006295	0.032660912	904	904	904	0	0	1	-30	30	-161.716223099	20.8106925586	162.007344567	-21.4621541717	;
	36	38	0.000952048	0.00867136	0.028144286	904	904	904	0	0	1	-30	30	-138.566017435	48.2139098521	138.768251408	-49.2343151099	;
	36	43	0.001604892	0.014617531	0.047443535	904	904	904	0	0	1	-30	30	83.6398912723	30.3745221712	-83.5128917024	-34.0280521322	;
	36	44	0.000327256	0.003504805	0.295218756	2172	2172	2172	0	0	1	-30	30	62.8429908131	93.6944529334	-62.7923731072	-123.144619035	;
	36	46	0.000315296	0.00337672	0.284429868	2172	2172	2172	0	0	1	-30	30	-340.964412892	109.907422756	341.371647988	-134.469436001	;
	37	40	0.000119	0.00127	0.429	4344	4344	4344	0	0	1	-30	30	-1007.91339463	227.888055886	1009.1778346	-257.845102776	;
	38	42	0.001675214	0.015258027	0.049522368	904	904	904	0	0	1	-30	30	-105.095454973	92.7298277788	105.427743715	-94.6634326437	;
	38	45	0.001624604	0.014797065	0.048026242	904	904	904	0	0	1	-30	30	40.7317210804	-1.04659149695	-40.7051123837	-3.57746457824	;
	38	46	0.001525585	0.013895192	0.045099066	904	904	904	0	0	1	-30	30	4.23281449588	-1.69583417335	-4.23253971567	-2.87463704025	;
	38	84	0.000977268	0.010466224	0.881597169	2172	2172	2172	0	0	1	-30	30	-572.482935434	143.802298215	575.983598494	-194.645169141	;
	39	44	0.000549539	0.00500526	0.064981493	1808	1808	1808	0	0	1	-30	30	-357.271788428	-20.0759599282	357.970600618	19.8844418151	;
	40	44	0.000186834	0.002000932	0.16854368	2172	2172	2172	0	0	1	-30	30	464.809047937	-73.5992635084	-464.401950812	60.9118212026	;
	40	47	0.000177428	0.001900194	0.160058219	2172	2172	2172	0	0	1	-30	30	1090.64707093	23.2775815657	-1088.55772068	-17.0456781656	;
	41	42	0.001299581	0.011836722	0.038417974	904	904	904	0	0	1	-30	30	525.389318039	-34.406315444	-521.755792106	63.6972701667	;
	41	52	0.003101751	0.028251087	0.091693421	904	904	904	0	0	1	-30	30	131.799543047	-17.7777824177	-131.250387924	13.6888977266	;
	41	77	0.002217352	0.020195883	0.065548969	904	904	904	0	0	1	-30	30	-148.218854676	19.1807109265	148.721634196	-21.0925037662	;
	42	46	0.00172419	0.015704108	0.050970195	904	904	904	0	0	1	-30	30	106.122022533	-91.5342091247	-105.787571024	89.4760368967	;
	42	84	0.004178797	0.038060939	0.123532864	904	904	904	0	0	1	-30	30	-113.014706768	7.82032976313	113.562540074	-15.0534083499	;
	43	44	0.000449352	0.004092749	0.013283673	904	904	904	0	0	1	-30	30	-242.317637193	-22.7632817717	242.581610816	23.8260877252	;
	44	48	0.001280818	0.011665829	0.037863315	904	904	904	0	0	1	-30	30	-93.4406038275	8.64486616863	93.5525275655	-11.4570347982	;
	44	57	0.000681396	0.007297531	0.614689901	2172	2172	2172	0	0	1	-30	30	-534.4801301	70.8244204101	536.473680968	-111.491167135	;
	45	46	0.000111099	0.001189836	0.100222927	2172	2172	2172	0	0	1	-30	30	-457.357087132	-20.1727746946	457.58687546	12.4798000872	;
	45	50	0.00040114	0.004296079	0.361869864	2172	2172	2172	0	0	1	-30	30	-381.184954669	-0.269854956017	381.761952147	-30.2196928441	;
	46	48	0.001260894	0.011484355	0.037274311	904	904	904	0	0	1	-30	30	23.7173662883	3.64548477724	-23.70998938	-7.35383564404	;
	46	50	0.000334595	0.003583402	0.301839233	2172	2172	2172	0	0	1	-30	30	-305.484924736	9.73399594129	305.794978887	-37.0206021908	;
	47	49	0.001906713	0.017366547	0.056365905	904	904	904	0	0	1	-30	30	-108.5040471	6.61006999541	108.728803953	-10.2386989136	;
	47	60	0.000752607	0.008060181	0.67892992	2172	2172	2172	0	0	1	-30	30	-998.344057975	44.9674767208	1005.84481427	-33.2588185032	;
	48	49	0.001480551	0.013485018	0.043767781	904	904	904	0	0	1	-30	30	25.3846817714	11.4520289356	-25.3725216723	-15.7607900417	;
	48	51	0.001270961	0.011576049	0.037571917	904	904	904	0	0	1	-30	30	1.18701967904	8.41035877673	-1.18566661265	-12.1956841559	;
	49	51	0.000899122	0.008189302	0.0598043	1356	1356	1356	0	0	1	-30	30	-40.0593528691	-10.7962164717	40.074213992	4.89996982435	;
	49	53	0.002230934	0.020319589	0.065950477	904	904	904	0	0	1	-30	30	-456.573875913	41.9187858517	461.234928601	-6.14561379132	;
	50	51	0.000183433	0.001964511	0.165475847	2172	2172	2172	0	0	1	-30	30	700.962954859	49.2831678146	-700.068268405	-56.4455854711	;
	50	54	0.000298513	0.003196975	0.269289514	2172	2172	2172	0	0	1	-30	30	-268.954086445	79.4051284108	269.192484814	-104.106124465	;
	50	62	4.12e-05	0.001322961	2.693994224	14580	14580	14580	0	0	1	-30	30	-1014.95064082	-83.4084091977	1015.37025672	-176.29147708	;
	51	55	0.001436718	0.01308578	0.042471992	904	904	904	0	0	1	-30	30	-255.744902905	39.4045760045	256.700263321	-34.9858154698	;
	51	57	0.00189377	0.017248658	0.055983277	904	904	904	0	0	1	-30	30	-162.855232388	28.023327289	163.370590519	-28.9710088255	;
	52	54	0.001933006	0.017606027	0.057143176	904	904	904	0	0	1	-30	30	128.441730683	-66.666456622	-128.040780231	64.5990984724	;
	52	56	0.001462649	0.013321963	0.04323856	904	904	904	0	0	1	-30	30	164.573203076	-37.5541288807	-164.155280791	37.0611817473	;
	52	84	0.001585688	0.014442614	0.046875812	904	904	904	0	0	1	-30	30	-126.383731124	19.5635536769	126.646768718	-21.8122420785	;
	53	55	0.000288514	0.003089893	1.041078801	4344	4344	4344	0	0	1	-30	30	1831.89387269	6.69894045094	-1822.37543611	-10.1925448271	;
	53	58	0.000270064	0.002892303	0.243626177	2172	2172	2172	0	0	1	-30	30	-100.82855175	6.02553612907	100.856415706	-30.5285985467	;
	53	63	2.79e-05	0.000896312	1.825192122	14580	14580	14580	0	0	1	-30	30	1896.75987091	-150.035444391	-1895.7732292	-4.14445382385	;
	54	55	0.002132132	0.019419691	0.063029714	904	904	904	0	0	1	-30	30	-58.2643341062	10.6651499104	58.3400499654	-16.3324865798	;
	54	61	0.001817125	0.016550571	0.053717525	904	904	904	0	0	1	-30	30	-11.0752340938	-3.7388201553	11.0774599933	-1.66808627866	;
	54	62	0.000345552	0.003700749	0.311723639	2172	2172	2172	0	0	1	-30	30	-126.609091416	-55.869030913	126.669446883	24.9727217364	;
	55	57	0.000154208	0.001651521	0.139111914	2172	2172	2172	0	0	1	-30	30	325.608270963	2.27320208692	-325.445813336	-14.5355884926	;
	55	64	0.003142511	0.028622331	0.092898352	904	904	904	0	0	1	-30	30	-8.66555895289	-11.4517145843	8.66933335377	2.10890304348	;
	56	61	0.001408725	0.01283082	0.041644479	904	904	904	0	0	1	-30	30	-9.95876248967	-54.4725771668	9.99895898222	50.6584010674	;
	57	60	0.001430752	0.01303144	0.042295623	904	904	904	0	0	1	-30	30	-231.408780105	-8.63745661256	232.171052961	11.3062500944	;
	57	97	0.000552148	0.005913329	0.498094995	2172	2172	2172	0	0	1	-30	30	-838.301335197	-43.9251925694	842.160725788	34.8068453735	;
	58	59	6.17e-05	0.00066	0.501	6516	6516	6516	0	0	1	-30	30	-2724.36760344	128.682044672	2728.88159805	-131.427128638	;
	58	63	0.00017	0.00182	0.613	4344	4344	4344	0	0	1	-30	30	1087.28058197	-142.925860087	-1085.28508931	101.877480136	;
	60	63	0.000254942	0.002730347	0.229984176	2172	2172	2172	0	0	1	-30	30	-544.937271257	-18.6605257583	545.683170262	3.26339110269	;
	60	100	0.000568608	0.006089613	0.512943851	2172	2172	2172	0	0	1	-30	30	-888.407254194	21.0810408546	892.840595828	-25.8590508027	;
	61	62	0.000190755	0.001737417	0.022556263	1808	1808	1808	0	0	1	-30	30	-165.01789395	-72.6328837573	165.078935624	70.9055934876	;
	62	63	6.31e-05	0.00202596	4.125535352	14580	14580	14580	0	0	1	-30	30	-2309.12515447	-199.995179796	2312.44388881	-112.673169516	;
	62	64	0.00024797	0.002655684	0.223695124	2172	2172	2172	0	0	1	-30	30	-346.253747942	63.9876964769	346.560870657	-83.3524895179	;
	63	97	0.001705746	0.015536123	0.050424972	904	904	904	0	0	1	-30	30	-29.5574852247	-3.56967198608	29.5721332277	-1.43617525592	;
	64	96	0.001229987	0.011202852	0.036360649	904	904	904	0	0	1	-30	30	-111.986261613	10.0306416633	112.14045469	-12.3050105615	;
	64	98	0.00145865	0.013285543	0.043120356	904	904	904	0	0	1	-30	30	45.2277020377	15.0906358341	-45.193906052	-19.1323062081	;
	64	99	0.00122871	0.011191219	0.036322892	904	904	904	0	0	1	-30	30	94.9851987973	17.7364780347	-94.8709620439	-20.3585093297	;
	64	102	0.00020466	0.002191839	0.73849704	4344	4344	4344	0	0	1	-30	30	-1071.03112517	25.4095383964	1073.35980049	-75.2586386299	;
	65	68	0.001222283	0.011132689	0.036132921	904	904	904	0	0	1	-30	30	-294.470687699	12.3608296329	295.556822411	-6.01158923681	;
	65	69	0.003164497	0.028822584	0.093548306	904	904	904	0	0	1	-30	30	202.380366208	-25.5743901208	-201.040931218	28.6110591481	;
	66	67	0.001903714	0.01733923	0.056277244	904	904	904	0	0	1	-30	30	-280.270801085	66.2575589221	281.864227277	-57.3164366065	;
	66	70	0.001986687	0.018094956	0.058730073	904	904	904	0	0	1	-30	30	-0.0127025732811	2.88674114243	0.0133762429233	-8.72077240093	;
	67	69	0.001285688	0.011710181	0.038007266	904	904	904	0	0	1	-30	30	-309.490212121	54.2922001552	310.781980621	-46.2620963748	;
	68	69	0.00309092	0.02815243	0.091373212	904	904	904	0	0	1	-30	30	325.227574053	-20.7295229284	-321.894196898	42.116669369	;
	68	71	0.000542799	0.0058132	0.489660838	2172	2172	2172	0	0	1	-30	30	-621.078878615	21.9663181092	623.220058722	-47.2473025189	;
	69	72	0.003845431	0.035024597	0.113677932	904	904	904	0	0	1	-30	30	196.712924141	-29.4340328688	-195.17364924	32.2656889241	;
	70	72	0.001924592	0.017529395	0.056894456	904	904	904	0	0	1	-30	30	-92.6432555396	24.9452997657	92.8244858033	-28.9295703073	;
	71	73	0.000429713	0.004602092	0.387646086	2172	2172	2172	0	0	1	-30	30	-870.172429345	88.3631010536	873.522844637	-90.6875890259	;
	71	78	0.005029715	0.045811184	0.148687523	904	904	904	0	0	1	-30	30	325.400798027	-36.3564506428	-319.956307236	71.1599719329	;
	72	74	0.001850173	0.016851572	0.054694473	904	904	904	0	0	1	-30	30	-5.54736886488	-14.1257728908	5.55039122652	8.74122398439	;
	73	75	0.000154736	0.001657168	0.139587554	2172	2172	2172	0	0	1	-30	30	-2137.16462943	81.3612972932	2144.35036468	-18.191861314	;
	73	76	0.003400257	0.030969904	0.100517777	904	904	904	0	0	1	-30	30	313.488297147	1.54738989041	-310.095130176	19.5333594903	;
	73	79	0.005323371	0.048485836	0.157368535	904	904	904	0	0	1	-30	30	313.896854331	-2.84013463244	-308.571712181	35.9509195117	;
	73	80	0.003287737	0.029945065	0.097191498	904	904	904	0	0	1	-30	30	-65.9175411571	-18.0944510774	66.0684483912	9.83155766208	;
	73	81	0.001180594	0.012643784	1.065018618	2172	2172	2172	0	0	1	-30	30	1523.63309879	-23.2346943336	-1495.80488187	216.622835711	;
	74	77	0.001050785	0.009570661	0.03106311	904	904	904	0	0	1	-30	30	276.966808793	-17.5356954314	-276.151157082	21.8878699386	;
	74	78	0.003080612	0.028058549	0.091068507	904	904	904	0	0	1	-30	30	-174.085020692	-1.17013139461	175.026930662	0.667948152057	;
	75	82	0.000690812	0.007398375	0.623184303	2172	2172	2172	0	0	1	-30	30	-574.169442607	-126.927211392	576.533775271	89.7916267719	;
	76	79	0.00216439	0.019713499	0.063983315	904	904	904	0	0	1	-30	30	276.135373661	-28.7392300229	-274.41853783	38.1686603976	;
	77	81	0.002745828	0.0250093	0.081171682	904	904	904	0	0	1	-30	30	-277.17214663	55.9583247442	279.403806073	-43.6249870086	;
	78	81	0.002422622	0.022065501	0.071617111	904	904	904	0	0	1	-30	30	23.0314991141	46.2347594896	-22.9587099137	-52.6715340161	;
	79	80	0.003522928	0.032087205	0.104144155	904	904	904	0	0	1	-30	30	-528.511639992	58.1207992847	538.792409289	25.2656537505	;
	79	81	0.001905365	0.017354266	0.056326045	904	904	904	0	0	1	-30	30	225.348143734	-48.698325168	-224.310042572	52.6596647729	;
	79	83	0.001772751	0.016146406	0.052405742	904	904	904	0	0	1	-30	30	267.968699665	-2.89431143702	-266.657503422	9.76853826277	;
	80	82	3.61e-05	0.00115912	2.360357594	14580	14580	14580	0	0	1	-30	30	-5067.34429659	-512.632819791	5076.68952467	575.220949294	;
	81	84	0.00122041	0.011115623	0.144310127	1808	1808	1808	0	0	1	-30	30	1068.33801959	-103.075543247	-1054.00796128	219.382922304	;
	81	86	0.000662535	0.007095536	0.59767536	2172	2172	2172	0	0	1	-30	30	-827.450023804	-0.108380852018	832.085172248	-9.12517359054	;
	82	85	0.004627741	0.042149964	0.136804449	904	904	904	0	0	1	-30	30	465.540381697	27.8530507883	-455.596367034	49.0739198442	;
	82	86	0.000927929	0.009937818	0.837088105	2172	2172	2172	0	0	1	-30	30	2164.56124194	108.826767343	-2121.48578802	268.600744107	;
	82	94	0.005001876	0.045557628	0.147864567	904	904	904	0	0	1	-30	30	185.972389113	-13.9272737261	-184.264703979	14.5252585679	;
	83	89	0.003668123	0.033409661	0.108436396	904	904	904	0	0	1	-30	30	-10.713001719	-37.5063427169	10.7570522307	27.3387726951	;
	85	86	0.000987046	0.00899012	0.029178874	904	904	904	0	0	1	-30	30	194.354331644	-75.1981225952	-193.919275694	76.2855092247	;
	86	87	0.000301405	0.003227955	0.271898989	2172	2172	2172	0	0	1	-30	30	-17.2478861055	-145.03962222	17.3014865057	118.571806906	;
	86	89	0.003643968	0.033189659	0.107722346	904	904	904	0	0	1	-30	30	181.02814352	-13.0916765293	-179.81999529	13.4518671766	;
	86	90	0.002477336	0.022563841	0.073234554	904	904	904	0	0	1	-30	30	81.7377385309	-16.2823109211	-81.5665887697	10.5817452784	;
	86	92	0.000752885	0.008063158	0.67918067	2172	2172	2172	0	0	1	-30	30	-110.948330616	-65.9638389643	111.049869874	-0.441172833014	;
	87	90	0.002118269	0.019293421	0.062619884	904	904	904	0	0	1	-30	30	99.2587201971	4.0458071325	-99.0486935472	-8.36707310176	;
	87	95	0.000515412	0.005519901	0.464955523	2172	2172	2172	0	0	1	-30	30	322.538230575	-40.8386567108	-321.99983144	0.186628227101	;
	88	92	0.001978682	0.018022046	0.058493431	904	904	904	0	0	1	-30	30	875.006977178	9.71949558025	-860.02701651	120.844638237	;
	88	94	0.002833759	0.025810183	0.083771075	904	904	904	0	0	1	-30	30	137.95357626	-11.3651409521	-137.419002892	7.77239147014	;
	89	93	0.001483845	0.013515018	0.043865152	904	904	904	0	0	1	-30	30	413.470338064	-58.0463436531	-410.850305903	77.5718352901	;
	90	92	0.002453205	0.022344057	0.072521209	904	904	904	0	0	1	-30	30	-122.76613983	0.50975614845	123.139174839	-4.32610508394	;
	91	147	0.00275034	0.025050396	0.081305066	904	904	904	0	0	1	-30	30	-43.8525743169	-0.959146644151	43.9053976499	-6.74600678662	;
	92	95	0.000460572	0.004932573	0.415483409	2172	2172	2172	0	0	1	-30	30	531.76293753	-69.1825917942	-530.446090741	41.84058266	;
	93	102	0.004195747	0.038215319	0.124033929	904	904	904	0	0	1	-30	30	176.209015558	-47.6388634323	-174.822946275	47.8239597821	;
	93	149	0.002966654	0.027020609	0.087699707	904	904	904	0	0	1	-30	30	-30.1862257425	15.0351269569	30.2247141727	-23.3467051999	;
	94	150	0.00258422	0.023537359	0.076394262	904	904	904	0	0	1	-30	30	591.619144844	-10.2634257789	-582.650680421	84.2745077216	;
	95	146	0.001216475	0.011079788	0.035961223	904	904	904	0	0	1	-30	30	324.900737752	3.41034561222	-323.613465852	4.73996199318	;
	95	150	0.000858914	0.009198692	0.774829649	2172	2172	2172	0	0	1	-30	30	-100.923061739	-43.7511939442	101.010961995	-32.7271818873	;
	95	152	0.003724941	0.033927169	0.110116054	904	904	904	0	0	1	-30	30	230.915465108	-9.02219820821	-228.924419941	16.2166694013	;
...